examples/tesp-pcs/files/R5-12.47-2_processed.glm
clock {
     timezone EST+5EDT;
  timestamp '2010-06-01 00:00:00';
  stoptime '2010-06-03 00:00:00';
}
#set profiler=1
module tape;
module powerflow{
     solver_method NR;
      default_maximum_voltage_error 1e-6;
};
#ifdef WANT_VI_DUMP
#endif
module climate;
module generators;
module connection;
module residential {
  implicit_enduses NONE;
};
#include "../../../../support/schedules/appliance_schedules.glm";
#include "../../../../support/schedules/water_and_setpoint_schedule_v5.glm";
#include "../../../../support/schedules/commercial_schedules.glm";
#set minimum_timestep=15;
#set relax_naming_rules=1;
#set warn=0;
object metrics_collector_writer {
  interval 300;
  interim 43200;
  filename ${METRICS_FILE};
  // filename R5-12.47-2_processed_metrics.json;
};
object climate {
  name localWeather;
  // tmyfile "../../../../support/weather/AZ-Tucson_International_Ap.tmy3";
  // agent name weather
  interpolate QUADRATIC;
  latitude 30.0;
  longitude -110.0;
  // altitude 0.0;
  tz_meridian 0.0;
};
// default IEEE 1547-2018 settings for Category B
#define INV_VBASE=240.0
#define INV_V1=0.92
#define INV_V2=0.98
#define INV_V3=1.02
#define INV_V4=1.08
#define INV_Q1=0.44
#define INV_Q2=0.00
#define INV_Q3=0.00
#define INV_Q4=-0.44
#define INV_VIN=200.0
#define INV_IIN=32.5
#define INV_VVLOCKOUT=300.0
#define INV_VW_V1=1.05 // 1.05833
#define INV_VW_V2=1.10
#define INV_VW_P1=1.0
#define INV_VW_P2=0.0
#ifdef WANT_VI_DUMP
object voltdump {
  filename Voltage_Dump_R5-12.47-2_processed.csv;
  mode polar;
}
object currdump {
  filename Current_Dump_R5-12.47-2_processed.csv;
  mode polar;
}
#endif // &&& end of common section for combining TESP cases
// solar inverter mode on this feeder
#define INVERTER_MODE=CONSTANT_PF
object transformer_configuration {
  name XF1_POLETOP_CS_25;
  power_rating 25.00;
  powerA_rating 0.0;
  powerB_rating 0.0;
  powerC_rating 25.00;
  install_type POLETOP;
  connect_type SINGLE_PHASE_CENTER_TAPPED;
  primary_voltage 7200.0;
  secondary_voltage 120.0;
  resistance 0.00800;
  resistance1 0.01600;
  resistance2 0.01600;
  reactance 0.01208;
  reactance1 0.00604;
  reactance2 0.00604;
  shunt_resistance 192.31;
  shunt_reactance 51.81;
}
object transformer_configuration {
  name XF1_POLETOP_CS_10;
  power_rating 10.00;
  powerA_rating 0.0;
  powerB_rating 0.0;
  powerC_rating 10.00;
  install_type POLETOP;
  connect_type SINGLE_PHASE_CENTER_TAPPED;
  primary_voltage 7200.0;
  secondary_voltage 120.0;
  resistance 0.00950;
  resistance1 0.01900;
  resistance2 0.01900;
  reactance 0.01040;
  reactance1 0.00520;
  reactance2 0.00520;
  shunt_resistance 147.06;
  shunt_reactance 34.25;
}
object transformer_configuration {
  name XF1_POLETOP_AS_37p5;
  power_rating 37.50;
  powerA_rating 37.50;
  powerB_rating 0.0;
  powerC_rating 0.0;
  install_type POLETOP;
  connect_type SINGLE_PHASE_CENTER_TAPPED;
  primary_voltage 7200.0;
  secondary_voltage 120.0;
  resistance 0.00725;
  resistance1 0.01450;
  resistance2 0.01450;
  reactance 0.01320;
  reactance1 0.00660;
  reactance2 0.00660;
  shunt_resistance 212.77;
  shunt_reactance 57.47;
}
object transformer_configuration {
  name XF1_POLETOP_BS_37p5;
  power_rating 37.50;
  powerA_rating 0.0;
  powerB_rating 37.50;
  powerC_rating 0.0;
  install_type POLETOP;
  connect_type SINGLE_PHASE_CENTER_TAPPED;
  primary_voltage 7200.0;
  secondary_voltage 120.0;
  resistance 0.00725;
  resistance1 0.01450;
  resistance2 0.01450;
  reactance 0.01320;
  reactance1 0.00660;
  reactance2 0.00660;
  shunt_resistance 212.77;
  shunt_reactance 57.47;
}
object transformer_configuration {
  name XF1_POLETOP_CS_37p5;
  power_rating 37.50;
  powerA_rating 0.0;
  powerB_rating 0.0;
  powerC_rating 37.50;
  install_type POLETOP;
  connect_type SINGLE_PHASE_CENTER_TAPPED;
  primary_voltage 7200.0;
  secondary_voltage 120.0;
  resistance 0.00725;
  resistance1 0.01450;
  resistance2 0.01450;
  reactance 0.01320;
  reactance1 0.00660;
  reactance2 0.00660;
  shunt_resistance 212.77;
  shunt_reactance 57.47;
}
object transformer_configuration {
  name XF1_POLETOP_AS_25;
  power_rating 25.00;
  powerA_rating 25.00;
  powerB_rating 0.0;
  powerC_rating 0.0;
  install_type POLETOP;
  connect_type SINGLE_PHASE_CENTER_TAPPED;
  primary_voltage 7200.0;
  secondary_voltage 120.0;
  resistance 0.00800;
  resistance1 0.01600;
  resistance2 0.01600;
  reactance 0.01208;
  reactance1 0.00604;
  reactance2 0.00604;
  shunt_resistance 192.31;
  shunt_reactance 51.81;
}
object transformer_configuration {
  name XF1_POLETOP_BS_5;
  power_rating 5.00;
  powerA_rating 0.0;
  powerB_rating 5.00;
  powerC_rating 0.0;
  install_type POLETOP;
  connect_type SINGLE_PHASE_CENTER_TAPPED;
  primary_voltage 7200.0;
  secondary_voltage 120.0;
  resistance 0.01050;
  resistance1 0.02100;
  resistance2 0.02100;
  reactance 0.01224;
  reactance1 0.00612;
  reactance2 0.00612;
  shunt_resistance 111.11;
  shunt_reactance 29.59;
}
object transformer_configuration {
  name XF1_POLETOP_CS_5;
  power_rating 5.00;
  powerA_rating 0.0;
  powerB_rating 0.0;
  powerC_rating 5.00;
  install_type POLETOP;
  connect_type SINGLE_PHASE_CENTER_TAPPED;
  primary_voltage 7200.0;
  secondary_voltage 120.0;
  resistance 0.01050;
  resistance1 0.02100;
  resistance2 0.02100;
  reactance 0.01224;
  reactance1 0.00612;
  reactance2 0.00612;
  shunt_resistance 111.11;
  shunt_reactance 29.59;
}
object transformer_configuration {
  name XF1_POLETOP_AS_10;
  power_rating 10.00;
  powerA_rating 10.00;
  powerB_rating 0.0;
  powerC_rating 0.0;
  install_type POLETOP;
  connect_type SINGLE_PHASE_CENTER_TAPPED;
  primary_voltage 7200.0;
  secondary_voltage 120.0;
  resistance 0.00950;
  resistance1 0.01900;
  resistance2 0.01900;
  reactance 0.01040;
  reactance1 0.00520;
  reactance2 0.00520;
  shunt_resistance 147.06;
  shunt_reactance 34.25;
}
object transformer_configuration {
  name XF1_POLETOP_AS_5;
  power_rating 5.00;
  powerA_rating 5.00;
  powerB_rating 0.0;
  powerC_rating 0.0;
  install_type POLETOP;
  connect_type SINGLE_PHASE_CENTER_TAPPED;
  primary_voltage 7200.0;
  secondary_voltage 120.0;
  resistance 0.01050;
  resistance1 0.02100;
  resistance2 0.02100;
  reactance 0.01224;
  reactance1 0.00612;
  reactance2 0.00612;
  shunt_resistance 111.11;
  shunt_reactance 29.59;
}
object transformer_configuration {
  name XF1_POLETOP_BS_25;
  power_rating 25.00;
  powerA_rating 0.0;
  powerB_rating 25.00;
  powerC_rating 0.0;
  install_type POLETOP;
  connect_type SINGLE_PHASE_CENTER_TAPPED;
  primary_voltage 7200.0;
  secondary_voltage 120.0;
  resistance 0.00800;
  resistance1 0.01600;
  resistance2 0.01600;
  reactance 0.01208;
  reactance1 0.00604;
  reactance2 0.00604;
  shunt_resistance 192.31;
  shunt_reactance 51.81;
}
object transformer_configuration {
  name XF1_POLETOP_BS_10;
  power_rating 10.00;
  powerA_rating 0.0;
  powerB_rating 10.00;
  powerC_rating 0.0;
  install_type POLETOP;
  connect_type SINGLE_PHASE_CENTER_TAPPED;
  primary_voltage 7200.0;
  secondary_voltage 120.0;
  resistance 0.00950;
  resistance1 0.01900;
  resistance2 0.01900;
  reactance 0.01040;
  reactance1 0.00520;
  reactance2 0.00520;
  shunt_resistance 147.06;
  shunt_reactance 34.25;
}
object transformer_configuration {
  name XF1_POLETOP_AS_15;
  power_rating 15.00;
  powerA_rating 15.00;
  powerB_rating 0.0;
  powerC_rating 0.0;
  install_type POLETOP;
  connect_type SINGLE_PHASE_CENTER_TAPPED;
  primary_voltage 7200.0;
  secondary_voltage 120.0;
  resistance 0.00850;
  resistance1 0.01700;
  resistance2 0.01700;
  reactance 0.01176;
  reactance1 0.00588;
  reactance2 0.00588;
  shunt_resistance 166.67;
  shunt_reactance 39.53;
}
object transformer_configuration {
  name XF1_POLETOP_CS_15;
  power_rating 15.00;
  powerA_rating 0.0;
  powerB_rating 0.0;
  powerC_rating 15.00;
  install_type POLETOP;
  connect_type SINGLE_PHASE_CENTER_TAPPED;
  primary_voltage 7200.0;
  secondary_voltage 120.0;
  resistance 0.00850;
  resistance1 0.01700;
  resistance2 0.01700;
  reactance 0.01176;
  reactance1 0.00588;
  reactance2 0.00588;
  shunt_resistance 166.67;
  shunt_reactance 39.53;
}
object transformer_configuration {
  name XF1_POLETOP_BS_15;
  power_rating 15.00;
  powerA_rating 0.0;
  powerB_rating 15.00;
  powerC_rating 0.0;
  install_type POLETOP;
  connect_type SINGLE_PHASE_CENTER_TAPPED;
  primary_voltage 7200.0;
  secondary_voltage 120.0;
  resistance 0.00850;
  resistance1 0.01700;
  resistance2 0.01700;
  reactance 0.01176;
  reactance1 0.00588;
  reactance2 0.00588;
  shunt_resistance 166.67;
  shunt_reactance 39.53;
}
object transformer_configuration {
  name XF3_POLETOP_ABCN_112p5;
  power_rating 112.50;
  powerA_rating 37.50;
  powerB_rating 37.50;
  powerC_rating 37.50;
  install_type POLETOP;
  connect_type WYE_WYE;
  primary_voltage 12470.0;
  secondary_voltage 480.0;
  resistance 0.01450;
  reactance 0.02850;
  shunt_resistance 169.49;
  shunt_reactance 33.44;
}
object transformer_configuration {
  name XF3_POLETOP_ABCN_75;
  power_rating 75.00;
  powerA_rating 25.00;
  powerB_rating 25.00;
  powerC_rating 25.00;
  install_type POLETOP;
  connect_type WYE_WYE;
  primary_voltage 12470.0;
  secondary_voltage 208.0;
  resistance 0.01600;
  reactance 0.02420;
  shunt_resistance 158.73;
  shunt_reactance 30.86;
}
object transformer_configuration {
  name XF3_POLETOP_ABCN_225;
  power_rating 225.00;
  powerA_rating 75.00;
  powerB_rating 75.00;
  powerC_rating 75.00;
  install_type POLETOP;
  connect_type WYE_WYE;
  primary_voltage 12470.0;
  secondary_voltage 480.0;
  resistance 0.01300;
  reactance 0.03520;
  shunt_resistance 200.00;
  shunt_reactance 40.00;
}
object transformer_configuration {
  name XF3_POLETOP_ABCN_750;
  power_rating 750.00;
  powerA_rating 250.00;
  powerB_rating 250.00;
  powerC_rating 250.00;
  install_type POLETOP;
  connect_type WYE_WYE;
  primary_voltage 12470.0;
  secondary_voltage 480.0;
  resistance 0.00970;
  reactance 0.05110;
  shunt_resistance 227.27;
  shunt_reactance 52.91;
}
object transformer_configuration {
  name XF3_POLETOP_ABCN_500;
  power_rating 500.00;
  powerA_rating 166.67;
  powerB_rating 166.67;
  powerC_rating 166.67;
  install_type POLETOP;
  connect_type WYE_WYE;
  primary_voltage 12470.0;
  secondary_voltage 480.0;
  resistance 0.01100;
  reactance 0.04880;
  shunt_resistance 222.22;
  shunt_reactance 44.25;
}
object transformer_configuration {
  name XF1_POLETOP_AN_10;
  power_rating 10.00;
  powerA_rating 10.00;
  powerB_rating 0.0;
  powerC_rating 0.0;
  install_type POLETOP;
  connect_type WYE_WYE;
  primary_voltage 12470.0;
  secondary_voltage 208.0;
  resistance 0.01900;
  reactance 0.01770;
  shunt_resistance 126.58;
  shunt_reactance 22.57;
}
object transformer_configuration {
  name XF3_POLETOP_ABCN_1000;
  power_rating 1000.00;
  powerA_rating 333.33;
  powerB_rating 333.33;
  powerC_rating 333.33;
  install_type POLETOP;
  connect_type WYE_WYE;
  primary_voltage 12470.0;
  secondary_voltage 480.0;
  resistance 0.00850;
  reactance 0.05690;
  shunt_resistance 232.56;
  shunt_reactance 60.61;
}
object transformer_configuration {
  name XF3_POLETOP_ABCN_30;
  power_rating 30.00;
  powerA_rating 10.00;
  powerB_rating 10.00;
  powerC_rating 10.00;
  install_type POLETOP;
  connect_type WYE_WYE;
  primary_voltage 12470.0;
  secondary_voltage 208.0;
  resistance 0.01900;
  reactance 0.01770;
  shunt_resistance 126.58;
  shunt_reactance 22.57;
}
object transformer_configuration {
  name XF1_POLETOP_AN_37p5;
  power_rating 37.50;
  powerA_rating 37.50;
  powerB_rating 0.0;
  powerC_rating 0.0;
  install_type POLETOP;
  connect_type WYE_WYE;
  primary_voltage 12470.0;
  secondary_voltage 208.0;
  resistance 0.01750;
  reactance 0.02120;
  shunt_resistance 142.86;
  shunt_reactance 25.38;
}
object transformer_configuration {
  name XF2_POLETOP_ABN_30;
  power_rating 30.00;
  powerA_rating 15.00;
  powerB_rating 15.00;
  powerC_rating 0.0;
  install_type POLETOP;
  connect_type WYE_WYE;
  primary_voltage 12470.0;
  secondary_voltage 208.0;
  resistance 0.01900;
  reactance 0.01770;
  shunt_resistance 126.58;
  shunt_reactance 22.57;
}
object transformer_configuration {
  name XF1_POLETOP_AN_25;
  power_rating 25.00;
  powerA_rating 25.00;
  powerB_rating 0.0;
  powerC_rating 0.0;
  install_type POLETOP;
  connect_type WYE_WYE;
  primary_voltage 12470.0;
  secondary_voltage 208.0;
  resistance 0.01900;
  reactance 0.01770;
  shunt_resistance 126.58;
  shunt_reactance 22.57;
}
object transformer_configuration {
  name XF2_POLETOP_ACN_30;
  power_rating 30.00;
  powerA_rating 15.00;
  powerB_rating 0.0;
  powerC_rating 15.00;
  install_type POLETOP;
  connect_type WYE_WYE;
  primary_voltage 12470.0;
  secondary_voltage 208.0;
  resistance 0.01900;
  reactance 0.01770;
  shunt_resistance 126.58;
  shunt_reactance 22.57;
}
object transformer_configuration {
  name XF1_POLETOP_BN_25;
  power_rating 25.00;
  powerA_rating 0.0;
  powerB_rating 25.00;
  powerC_rating 0.0;
  install_type POLETOP;
  connect_type WYE_WYE;
  primary_voltage 12470.0;
  secondary_voltage 208.0;
  resistance 0.01900;
  reactance 0.01770;
  shunt_resistance 126.58;
  shunt_reactance 22.57;
}
object transformer_configuration {
  name XF3_POLETOP_ABCN_45;
  power_rating 45.00;
  powerA_rating 15.00;
  powerB_rating 15.00;
  powerC_rating 15.00;
  install_type POLETOP;
  connect_type WYE_WYE;
  primary_voltage 12470.0;
  secondary_voltage 208.0;
  resistance 0.01750;
  reactance 0.02120;
  shunt_resistance 142.86;
  shunt_reactance 25.38;
}
object triplex_line_conductor {
  name triplex_4/0_aa;
  resistance 0.48;
  geometric_mean_radius 0.0158;
  rating.summer.continuous 1000.0;
  rating.summer.emergency 1000.0;
  rating.winter.continuous 1000.0;
  rating.winter.emergency 1000.0;
}
object triplex_line_configuration {
  name tpx_config;
  conductor_1 triplex_4/0_aa;
  conductor_2 triplex_4/0_aa;
  conductor_N triplex_4/0_aa;
  insulation_thickness 0.08;
  diameter 0.522;
}
object regulator_configuration {
  name feeder_reg_cfg;
  Control OUTPUT_VOLTAGE;
  band_center 7500.0;
  band_width 120;
  connect_type WYE_WYE;
  time_delay 30;
  raise_taps 16;
  lower_taps 16;
  regulation 0.10;
  tap_pos_A 0;
  tap_pos_B 0;
  tap_pos_C 0;
}
object overhead_line_conductor {
  name ID_667;
  rating.summer.continuous 891.0;
  geometric_mean_radius 0.03550 ft;
  resistance 0.14420;
}
object overhead_line_conductor {
  name ID_668;
  rating.summer.continuous 230.0;
  geometric_mean_radius 0.01203 ft;
  resistance 0.95300;
}
object overhead_line_conductor {
  name ID_669;
  rating.summer.continuous 197.0;
  geometric_mean_radius 0.00883 ft;
  resistance 1.51970;
}
object overhead_line_conductor {
  name ID_670;
  rating.summer.continuous 714.0;
  geometric_mean_radius 0.01703 ft;
  resistance 0.21600;
}
object overhead_line_conductor {
  name ID_671;
  rating.summer.continuous 123.0;
  geometric_mean_radius 0.00437 ft;
  resistance 2.53069;
}
object overhead_line_conductor {
  name ID_672;
  rating.summer.continuous 90.0;
  geometric_mean_radius 0.00599 ft;
  resistance 0.67000;
}
object overhead_line_conductor {
  name ID_673;
  rating.summer.continuous 270.0;
  geometric_mean_radius 0.01350 ft;
  resistance 0.13200;
}
object overhead_line_conductor {
  name ID_674;
  rating.summer.continuous 360.0;
  geometric_mean_radius 0.01033 ft;
  resistance 0.47600;
}
object line_spacing {
  name ID_68;
  distance_AB 48.0 in;
  distance_BC 48.0 in;
  distance_AC 48.0 in;
  distance_AN 36.0 in;
  distance_BN 36.0 in;
  distance_CN 36.0 in;
}
object line_spacing {
  name ID_69;
  distance_CN 36.0 in;
}
object line_spacing {
  name ID_70;
  distance_AN 36.0 in;
}
object line_spacing {
  name ID_71;
  distance_AB 36.0 in;
  distance_BC 36.0 in;
  distance_AC 36.0 in;
  distance_AN 48.0 in;
  distance_BN 48.0 in;
  distance_CN 48.0 in;
}
object line_spacing {
  name ID_72;
  distance_AB 36.0 in;
  distance_AN 48.0 in;
  distance_BN 48.0 in;
}
object line_spacing {
  name ID_73;
  distance_AN 48.0 in;
}
object line_spacing {
  name ID_74;
  distance_AC 36.0 in;
  distance_AN 48.0 in;
  distance_CN 48.0 in;
}
object line_spacing {
  name ID_75;
  distance_CN 48.0 in;
}
object line_spacing {
  name ID_76;
  distance_BN 48.0 in;
}
object line_configuration {
  name ID_39;
  conductor_A ID_667;
  conductor_B ID_667;
  conductor_C ID_667;
  conductor_N ID_667;
  spacing ID_68;
}
object line_configuration {
  name ID_40;
  conductor_C ID_667;
  conductor_N ID_667;
  spacing ID_69;
}
object line_configuration {
  name ID_41;
  conductor_A ID_667;
  conductor_N ID_667;
  spacing ID_70;
}
object line_configuration {
  name ID_42;
  conductor_A ID_668;
  conductor_B ID_668;
  conductor_C ID_668;
  conductor_N ID_668;
  spacing ID_71;
}
object line_configuration {
  name ID_43;
  conductor_A ID_669;
  conductor_B ID_669;
  conductor_N ID_669;
  spacing ID_72;
}
object line_configuration {
  name ID_44;
  conductor_A ID_670;
  conductor_B ID_670;
  conductor_C ID_670;
  conductor_N ID_670;
  spacing ID_71;
}
object line_configuration {
  name ID_45;
  conductor_A ID_668;
  conductor_N ID_668;
  spacing ID_73;
}
object line_configuration {
  name ID_46;
  conductor_A ID_669;
  conductor_B ID_669;
  conductor_C ID_669;
  conductor_N ID_669;
  spacing ID_71;
}
object line_configuration {
  name ID_47;
  conductor_A ID_671;
  conductor_B ID_671;
  conductor_C ID_671;
  conductor_N ID_671;
  spacing ID_71;
}
object line_configuration {
  name ID_48;
  conductor_A ID_672;
  conductor_C ID_672;
  conductor_N ID_672;
  spacing ID_74;
}
object line_configuration {
  name ID_49;
  conductor_A ID_671;
  conductor_B ID_671;
  conductor_C ID_671;
  conductor_N ID_671;
  spacing ID_71;
}
object line_configuration {
  name ID_50;
  conductor_A ID_671;
  conductor_C ID_671;
  conductor_N ID_671;
  spacing ID_74;
}
object line_configuration {
  name ID_51;
  conductor_C ID_668;
  conductor_N ID_668;
  spacing ID_75;
}
object line_configuration {
  name ID_52;
  conductor_A ID_673;
  conductor_B ID_673;
  conductor_C ID_673;
  conductor_N ID_673;
  spacing ID_71;
}
object line_configuration {
  name ID_53;
  conductor_B ID_668;
  conductor_N ID_668;
  spacing ID_76;
}
object line_configuration {
  name ID_54;
  conductor_A ID_671;
  conductor_C ID_671;
  conductor_N ID_671;
  spacing ID_74;
}
object line_configuration {
  name ID_55;
  conductor_B ID_671;
  conductor_N ID_671;
  spacing ID_76;
}
object line_configuration {
  name ID_56;
  conductor_C ID_672;
  conductor_N ID_672;
  spacing ID_75;
}
object line_configuration {
  name ID_57;
  conductor_A ID_668;
  conductor_B ID_668;
  conductor_N ID_668;
  spacing ID_72;
}
object line_configuration {
  name ID_58;
  conductor_A ID_669;
  conductor_C ID_669;
  conductor_N ID_669;
  spacing ID_74;
}
object line_configuration {
  name ID_59;
  conductor_B ID_669;
  conductor_N ID_669;
  spacing ID_76;
}
object line_configuration {
  name ID_60;
  conductor_C ID_669;
  conductor_N ID_669;
  spacing ID_75;
}
object line_configuration {
  name ID_61;
  conductor_A ID_669;
  conductor_B ID_669;
  conductor_C ID_669;
  conductor_N ID_669;
  spacing ID_71;
}
object line_configuration {
  name ID_62;
  conductor_A ID_1562;
  conductor_B ID_1562;
  conductor_C ID_1562;
  conductor_N ID_1562;
  spacing ID_71;
}
object line_configuration {
  name ID_63;
  conductor_A ID_1563;
  conductor_B ID_1563;
  conductor_C ID_1563;
  conductor_N ID_1563;
  spacing ID_71;
}
object line_configuration {
  name ID_64;
  conductor_A ID_1562;
  conductor_N ID_1562;
  spacing ID_73;
}
object line_configuration {
  name ID_65;
  conductor_A ID_1564;
  conductor_B ID_1564;
  conductor_C ID_1564;
  conductor_N ID_1564;
  spacing ID_71;
}
object line_configuration {
  name ID_66;
  conductor_A ID_1565;
  conductor_B ID_1565;
  conductor_C ID_1565;
  conductor_N ID_1565;
  spacing ID_71;
}
object line_configuration {
  name ID_67;
  conductor_C ID_1562;
  conductor_N ID_1562;
  spacing ID_75;
}
object triplex_line_conductor {
  name triplex_4/0 AA;
  resistance 0.48;
  geometric_mean_radius 0.0158;
  rating.summer.continuous 1000.0;
  rating.summer.emergency 1000.0;
  rating.winter.continuous 1000.0;
  rating.winter.emergency 1000.0;
}
object triplex_line_configuration {
  name ID_932;
  conductor_1 triplex_4/0 AA;
  conductor_2 triplex_4/0 AA;
  conductor_N triplex_4/0 AA;
  insulation_thickness 0.08;
  diameter 0.522;
}
object underground_line_conductor {
  name ID_1562;
  rating.summer.continuous 112.0;
  outer_diameter 1.09;
  conductor_gmr 0.0088 ft;
  conductor_diameter 0.292;
  conductor_resistance 1.38336;
  neutral_gmr 0.00208 ft;
  neutral_resistance 14.87;
  neutral_diameter 0.0641;
  neutral_strands 6.0;
  insulation_relative_permitivitty 2.3;
}
object underground_line_conductor {
  name ID_1563;
  rating.summer.continuous 214.0;
  outer_diameter 1.32;
  conductor_gmr 0.0177 ft;
  conductor_diameter 0.528;
  conductor_resistance 0.433488;
  neutral_gmr 0.00208 ft;
  neutral_resistance 14.87;
  neutral_diameter 0.0641;
  neutral_strands 11.0;
  insulation_relative_permitivitty 2.3;
}
object underground_line_conductor {
  name ID_1564;
  rating.summer.continuous 425.0;
  outer_diameter 1.96;
  conductor_gmr 0.0321 ft;
  conductor_diameter 0.998;
  conductor_resistance 0.122496;
  neutral_gmr 0.00330 ft;
  neutral_resistance 5.9026;
  neutral_diameter 0.1019;
  neutral_strands 15.0;
  insulation_relative_permitivitty 2.3;
}
object underground_line_conductor {
  name ID_1565;
  rating.summer.continuous 488.0;
  outer_diameter 2.15;
  conductor_gmr 0.0371 ft;
  conductor_diameter 1.152;
  conductor_resistance 0.091872;
  neutral_gmr 0.00330 ft;
  neutral_resistance 5.9026;
  neutral_diameter 0.1019;
  neutral_strands 20.0;
  insulation_relative_permitivitty 2.3;
}
object fuse {
  name R5_12_47_2_fuse_1;
// downstream 42.74 kva on ABC
  phases ABCN;
  from R5_12_47_2_node_50;
  to R5_12_47_2_node_172;
  current_limit 40;
  status CLOSED;
  mean_replacement_time 3600;
}
object fuse {
  name R5_12_47_2_fuse_2;
// downstream 42.74 kva on ABC
  phases ABCN;
  from R5_12_47_2_node_49;
  to R5_12_47_2_node_173;
  current_limit 40;
  status CLOSED;
  mean_replacement_time 3600;
}
object fuse {
  name R5_12_47_2_fuse_3;
// downstream 712.26 kva on ABC
  phases ABCN;
  from R5_12_47_2_node_18;
  to R5_12_47_2_node_191;
  current_limit 100;
  status CLOSED;
  mean_replacement_time 3600;
}
object fuse {
  name R5_12_47_2_fuse_4;
// downstream 427.35 kva on ABC
  phases ABCN;
  from R5_12_47_2_node_17;
  to R5_12_47_2_node_199;
  current_limit 65;
  status CLOSED;
  mean_replacement_time 3600;
}
object fuse {
  name R5_12_47_2_fuse_5;
  phases ABCN;
  from R5_12_47_2_node_20;
  to R5_12_47_2_node_188;
  current_limit 50000;
  status CLOSED;
  mean_replacement_time 3600;
}
object fuse {
  name R5_12_47_2_fuse_6;
// downstream 712.26 kva on ABC
  phases ABCN;
  from R5_12_47_2_node_19;
  to R5_12_47_2_node_202;
  current_limit 100;
  status CLOSED;
  mean_replacement_time 3600;
}
object fuse {
  name R5_12_47_2_fuse_7;
  phases ABCN;
  from R5_12_47_2_node_57;
  to R5_12_47_2_node_198;
  current_limit 50000;
  status CLOSED;
  mean_replacement_time 3600;
}
object fuse {
  name R5_12_47_2_fuse_8;
// downstream 7.27 kva on A
  phases AN;
  from R5_12_47_2_node_38;
  to R5_12_47_2_node_189;
  current_limit 40;
  status CLOSED;
  mean_replacement_time 3600;
}
object fuse {
  name R5_12_47_2_fuse_9;
// downstream 36.34 kva on A
  phases AN;
  from R5_12_47_2_node_37;
  to R5_12_47_2_node_200;
  current_limit 40;
  status CLOSED;
  mean_replacement_time 3600;
}
object fuse {
  name R5_12_47_2_fuse_10;
// downstream 811.97 kva on ABC
  phases ABCN;
  from R5_12_47_2_node_56;
  to R5_12_47_2_node_197;
  current_limit 100;
  status CLOSED;
  mean_replacement_time 3600;
}
object fuse {
  name R5_12_47_2_fuse_11;
// downstream 64.98 kva on ABC
  phases ABCN;
  from R5_12_47_2_node_44;
  to R5_12_47_2_node_196;
  current_limit 40;
  status CLOSED;
  mean_replacement_time 3600;
}
object fuse {
  name R5_12_47_2_fuse_12;
// downstream 70.11 kva on AB
  phases ABN;
  from R5_12_47_2_node_42;
  to R5_12_47_2_node_203;
  current_limit 40;
  status CLOSED;
  mean_replacement_time 3600;
}
object fuse {
  name R5_12_47_2_fuse_13;
// downstream 14.54 kva on A
  phases AN;
  from R5_12_47_2_node_51;
  to R5_12_47_2_node_204;
  current_limit 40;
  status CLOSED;
  mean_replacement_time 3600;
}
object fuse {
  name R5_12_47_2_fuse_14;
// downstream 42.74 kva on ABC
  phases ABCN;
  from R5_12_47_2_node_46;
  to R5_12_47_2_node_178;
  current_limit 40;
  status CLOSED;
  mean_replacement_time 3600;
}
object fuse {
  name R5_12_47_2_fuse_15;
// downstream 712.26 kva on ABC
  phases ABCN;
  from R5_12_47_2_node_16;
  to R5_12_47_2_node_175;
  current_limit 100;
  status CLOSED;
  mean_replacement_time 3600;
}
object fuse {
  name R5_12_47_2_fuse_16;
// downstream 1139.61 kva on ABC
  phases ABCN;
  from R5_12_47_2_node_15;
  to R5_12_47_2_node_186;
  current_limit 200;
  status CLOSED;
  mean_replacement_time 3600;
}
object fuse {
  name R5_12_47_2_fuse_17;
// downstream 142.45 kva on ABC
  phases ABCN;
  from R5_12_47_2_node_21;
  to R5_12_47_2_node_184;
  current_limit 40;
  status CLOSED;
  mean_replacement_time 3600;
}
object fuse {
  name R5_12_47_2_fuse_18;
// downstream 127.00 kva on ABCS
  phases ABCN;
  from R5_12_47_2_node_9;
  to R5_12_47_2_node_171;
  current_limit 40;
  status CLOSED;
  mean_replacement_time 3600;
}
object fuse {
  name R5_12_47_2_fuse_19;
// downstream 94.31 kva on ACS
  phases ACN;
  from R5_12_47_2_node_9;
  to R5_12_47_2_node_170;
  current_limit 40;
  status CLOSED;
  mean_replacement_time 3600;
}
object fuse {
  name R5_12_47_2_fuse_20;
// downstream 390.69 kva on ABCS
  phases ABCN;
  from R5_12_47_2_node_8;
  to R5_12_47_2_node_179;
  current_limit 65;
  status CLOSED;
  mean_replacement_time 3600;
}
object fuse {
  name R5_12_47_2_fuse_21;
// downstream 77.06 kva on ACS
  phases ABCN;
  from R5_12_47_2_node_6;
  to R5_12_47_2_node_176;
  current_limit 40;
  status CLOSED;
  mean_replacement_time 3600;
}
object fuse {
  name R5_12_47_2_fuse_22;
// downstream 32.89 kva on ABC
  phases ABCN;
  from R5_12_47_2_node_53;
  to R5_12_47_2_node_182;
  current_limit 40;
  status CLOSED;
  mean_replacement_time 3600;
}
object fuse {
  name R5_12_47_2_fuse_23;
// downstream 188.18 kva on ABCS
  phases ABCN;
  from R5_12_47_2_node_5;
  to R5_12_47_2_node_177;
  current_limit 40;
  status CLOSED;
  mean_replacement_time 3600;
}
object fuse {
  name R5_12_47_2_fuse_24;
// downstream 42.74 kva on ABC
  phases ABCN;
  from R5_12_47_2_node_42;
  to R5_12_47_2_node_183;
  current_limit 40;
  status CLOSED;
  mean_replacement_time 3600;
}
object fuse {
  name R5_12_47_2_fuse_25;
// downstream 57.07 kva on CS
  phases CN;
  from R5_12_47_2_node_3;
  to R5_12_47_2_node_174;
  current_limit 40;
  status CLOSED;
  mean_replacement_time 3600;
}
object fuse {
  name R5_12_47_2_fuse_26;
// downstream 48.76 kva on BS
  phases BN;
  from R5_12_47_2_node_5;
  to R5_12_47_2_node_195;
  current_limit 40;
  status CLOSED;
  mean_replacement_time 3600;
}
object fuse {
  name R5_12_47_2_fuse_27;
// downstream 97.67 kva on ABCS
  phases ABCN;
  from R5_12_47_2_node_30;
  to R5_12_47_2_node_185;
  current_limit 40;
  status CLOSED;
  mean_replacement_time 3600;
}
object fuse {
  name R5_12_47_2_fuse_28;
// downstream 85.47 kva on ABCS
  phases ABCN;
  from R5_12_47_2_node_4;
  to R5_12_47_2_node_180;
  current_limit 40;
  status CLOSED;
  mean_replacement_time 3600;
}
object fuse {
  name R5_12_47_2_fuse_29;
// downstream 47.86 kva on ACS
  phases ABCN;
  from R5_12_47_2_node_29;
  to R5_12_47_2_node_192;
  current_limit 40;
  status CLOSED;
  mean_replacement_time 3600;
}
object fuse {
  name R5_12_47_2_fuse_30;
// downstream 13.93 kva on BS
  phases ABCN;
  from R5_12_47_2_node_30;
  to R5_12_47_2_node_190;
  current_limit 40;
  status CLOSED;
  mean_replacement_time 3600;
}
object fuse {
  name R5_12_47_2_fuse_31;
// downstream 238.10 kva on ABCS
  phases ABCN;
  from R5_12_47_2_node_3;
  to R5_12_47_2_node_194;
  current_limit 40;
  status CLOSED;
  mean_replacement_time 3600;
}
object fuse {
  name R5_12_47_2_fuse_32;
// downstream 14.27 kva on CS
  phases CN;
  from R5_12_47_2_node_2;
  to R5_12_47_2_node_193;
  current_limit 40;
  status CLOSED;
  mean_replacement_time 3600;
}
object fuse {
  name R5_12_47_2_fuse_33;
// downstream 7.13 kva on CS
  phases CN;
  from R5_12_47_2_node_32;
  to R5_12_47_2_node_181;
  current_limit 40;
  status CLOSED;
  mean_replacement_time 3600;
}
object fuse {
  name R5_12_47_2_fuse_34;
// downstream 427.35 kva on ABC
  phases ABCN;
  from R5_12_47_2_node_210;
  to R5_12_47_2_node_187;
  current_limit 65;
  status CLOSED;
  mean_replacement_time 3600;
}
object fuse {
  name R5_12_47_2_fuse_35;
  phases ABCN;
  from R5_12_47_2_node_293;
  to R5_12_47_2_node_201;
  current_limit 50000;
  status CLOSED;
  mean_replacement_time 3600;
}
object switch {
  name R5_12_47_2_switch_1;
// downstream 3885.17 kva on ABCS
  phases ABCN;
  from R5_12_47_2_node_49;
  to R5_12_47_2_node_224;
  status CLOSED;
}
object switch {
  name R5_12_47_2_switch_2;
  phases ABCN;
  from R5_12_47_2_node_17;
  to R5_12_47_2_node_212;
  status CLOSED;
}
object switch {
  name R5_12_47_2_switch_3;
  phases ABCN;
  from R5_12_47_2_node_67;
  to R5_12_47_2_node_313;
  status CLOSED;
}
object switch {
  name R5_12_47_2_switch_4;
// downstream 427.35 kva on ABC
  phases ABCN;
  from R5_12_47_2_node_215;
  to R5_12_47_2_node_26;
  status CLOSED;
}
object switch {
  name R5_12_47_2_switch_5;
  phases ABCN;
  from R5_12_47_2_node_24;
  to R5_12_47_2_node_214;
  status CLOSED;
}
object switch {
  name R5_12_47_2_switch_6;
  phases ABCN;
  from R5_12_47_2_node_20;
  to R5_12_47_2_node_219;
  status CLOSED;
}
object switch {
  name R5_12_47_2_switch_7;
// downstream 4035.17 kva on ABCS
  phases ABCN;
  from R5_12_47_2_node_56;
  to R5_12_47_2_node_211;
  status CLOSED;
}
object switch {
  name R5_12_47_2_switch_8;
// downstream 427.35 kva on ABC
  phases ABCN;
  from R5_12_47_2_node_25;
  to R5_12_47_2_node_210;
  status CLOSED;
}
object switch {
  name R5_12_47_2_switch_9;
// downstream 3572.17 kva on ABCS
  phases ABCN;
  from R5_12_47_2_node_221;
  to R5_12_47_2_node_64;
  status CLOSED;
}
object switch {
  name R5_12_47_2_switch_10;
// downstream 3885.17 kva on ABCS
  phases ABCN;
  from R5_12_47_2_node_222;
  to R5_12_47_2_node_40;
  status CLOSED;
}
object switch {
  name R5_12_47_2_switch_11;
// downstream 3970.64 kva on ABCS
  phases ABCN;
  from R5_12_47_2_node_51;
  to R5_12_47_2_node_225;
  status CLOSED;
}
object switch {
  name R5_12_47_2_switch_12;
// downstream 1265.82 kva on ABCS
  phases ABCN;
  from R5_12_47_2_node_14;
  to R5_12_47_2_node_213;
  status CLOSED;
}
object switch {
  name R5_12_47_2_switch_13;
// downstream 1964.30 kva on ABC
  phases ABCN;
  from R5_12_47_2_node_14;
  to R5_12_47_2_node_208;
  status CLOSED;
}
object switch {
  name R5_12_47_2_switch_14;
// downstream 3572.17 kva on ABCS
  phases ABCN;
  from R5_12_47_2_node_220;
  to R5_12_47_2_node_221;
  status CLOSED;
}
object switch {
  name R5_12_47_2_switch_15;
// downstream 3970.64 kva on ABCS
  phases ABCN;
  from R5_12_47_2_node_225;
  to R5_12_47_2_node_223;
  status CLOSED;
}
object switch {
  name R5_12_47_2_switch_16;
// downstream 4847.15 kva on ABCS
  phases ABCN;
  from R5_12_47_2_node_310;
  to R5_12_47_2_node_206;
  status CLOSED;
}
object switch {
  name R5_12_47_2_switch_17;
  phases ABCN;
  from R5_12_47_2_node_295;
  to R5_12_47_2_node_216;
  status CLOSED;
}
object switch {
  name R5_12_47_2_switch_18;
// downstream 712.26 kva on ABC
  phases ABCN;
  from R5_12_47_2_node_175;
  to R5_12_47_2_node_207;
  status CLOSED;
}
object switch {
  name R5_12_47_2_switch_19;
// downstream 29.07 kva on A
  phases AN;
  from R5_12_47_2_node_236;
  to R5_12_47_2_node_230;
  status CLOSED;
}
object switch {
  name R5_12_47_2_switch_20;
// downstream 4035.17 kva on ABCS
  phases ABCN;
  from R5_12_47_2_node_294;
  to R5_12_47_2_node_217;
  status CLOSED;
}
object switch {
  name R5_12_47_2_switch_21;
// downstream 712.26 kva on ABC
  phases ABCN;
  from R5_12_47_2_node_311;
  to R5_12_47_2_node_260;
  status CLOSED;
}
object switch {
  name R5_12_47_2_switch_22;
// downstream 1139.61 kva on ABC
  phases ABCN;
  from R5_12_47_2_node_186;
  to R5_12_47_2_node_209;
  status CLOSED;
}
object switch {
  name R5_12_47_2_switch_23;
// downstream 42.74 kva on ABC
  phases ABCN;
  from R5_12_47_2_node_309;
  to R5_12_47_2_node_241;
  status CLOSED;
}
object overhead_line {
  name R5_12_47_2_ol_1;
// downstream 85.47 kva on ABC
  phases ABCN;
  from R5_12_47_2_node_63;
  to R5_12_47_2_node_227;
  length 5.895;
  configuration ID_39;
}
object overhead_line {
  name R5_12_47_2_ol_2;
// downstream 85.47 kva on ABC
  phases ABCN;
  from R5_12_47_2_node_228;
  to R5_12_47_2_node_63;
  length 5.840;
  configuration ID_39;
}
object overhead_line {
  name R5_12_47_2_ol_3;
// downstream 3970.64 kva on ABCS
  phases ABCN;
  from R5_12_47_2_node_223;
  to R5_12_47_2_node_50;
  length 12.025;
  configuration ID_39;
}
object overhead_line {
  name R5_12_47_2_ol_4;
// downstream 3927.91 kva on ABCS
  phases ABCN;
  from R5_12_47_2_node_50;
  to R5_12_47_2_node_49;
  length 13.551;
  configuration ID_39;
}
object overhead_line {
  name R5_12_47_2_ol_5;
// downstream 42.74 kva on ABC
  phases ABCN;
  from R5_12_47_2_node_241;
  to R5_12_47_2_node_165;
  length 5.000;
  configuration ID_39;
}
object overhead_line {
  name R5_12_47_2_ol_6;
// downstream 42.74 kva on ABC
  phases ABCN;
  from R5_12_47_2_node_237;
  to R5_12_47_2_node_122;
  length 5.000;
  configuration ID_39;
}
object overhead_line {
  name R5_12_47_2_ol_7;
// downstream 128.21 kva on ABC
  phases ABCN;
  from R5_12_47_2_node_252;
  to R5_12_47_2_node_101;
  length 5.000;
  configuration ID_39;
}
object overhead_line {
  name R5_12_47_2_ol_8;
// downstream 14.27 kva on CS
  phases CN;
  from R5_12_47_2_node_244;
  to R5_12_47_2_node_123;
  length 5.000;
  configuration ID_40;
}
object overhead_line {
  name R5_12_47_2_ol_9;
// downstream 7.13 kva on CS
  phases CN;
  from R5_12_47_2_node_233;
  to R5_12_47_2_node_124;
  length 5.000;
  configuration ID_40;
}
object overhead_line {
  name R5_12_47_2_ol_10;
// downstream 43.61 kva on A
  phases ABCN;
  from R5_12_47_2_node_121;
  to R5_12_47_2_node_257;
  length 5.000;
  configuration ID_39;
}
object overhead_line {
  name R5_12_47_2_ol_11;
  phases ABCN;
  from R5_12_47_2_node_115;
  to R5_12_47_2_node_254;
  length 5.000;
  configuration ID_39;
}
object overhead_line {
  name R5_12_47_2_ol_12;
// downstream 170.94 kva on ABC
  phases ABCN;
  from R5_12_47_2_node_66;
  to R5_12_47_2_node_247;
  length 5.000;
  configuration ID_39;
}
object overhead_line {
  name R5_12_47_2_ol_13;
// downstream 85.47 kva on ABC
  phases ABCN;
  from R5_12_47_2_node_101;
  to R5_12_47_2_node_265;
  length 5.000;
  configuration ID_39;
}
object overhead_line {
  name R5_12_47_2_ol_14;
// downstream 1139.61 kva on ABC
  phases ABCN;
  from R5_12_47_2_node_209;
  to R5_12_47_2_node_19;
  length 20.000;
  configuration ID_39;
}
object overhead_line {
  name R5_12_47_2_ol_15;
  phases ABCN;
  from R5_12_47_2_node_23;
  to R5_12_47_2_node_24;
  length 15.000;
  configuration ID_39;
}
object overhead_line {
  name R5_12_47_2_ol_16;
// downstream 811.97 kva on ABC
  phases ABCN;
  from R5_12_47_2_node_235;
  to R5_12_47_2_node_164;
  length 5.000;
  configuration ID_39;
}
object overhead_line {
  name R5_12_47_2_ol_17;
// downstream 85.47 kva on ABCS
  phases ABCN;
  from R5_12_47_2_node_245;
  to R5_12_47_2_node_139;
  length 5.000;
  configuration ID_39;
}
object overhead_line {
  name R5_12_47_2_ol_18;
// downstream 712.26 kva on ABC
  phases ABCN;
  from R5_12_47_2_node_207;
  to R5_12_47_2_node_18;
  length 20.000;
  configuration ID_39;
}
object overhead_line {
  name R5_12_47_2_ol_19;
// downstream 726.50 kva on ABC
  phases ABCN;
  from R5_12_47_2_node_164;
  to R5_12_47_2_node_256;
  length 5.000;
  configuration ID_39;
}
object overhead_line {
  name R5_12_47_2_ol_20;
  phases AN;
  from R5_12_47_2_node_113;
  to R5_12_47_2_node_314;
  length 5.000;
  configuration ID_41;
}
object overhead_line {
  name R5_12_47_2_ol_21;
// downstream 142.45 kva on ABC
  phases ABCN;
  from R5_12_47_2_node_231;
  to R5_12_47_2_node_167;
  length 5.000;
  configuration ID_39;
}
object overhead_line {
  name R5_12_47_2_ol_22;
// downstream 313.39 kva on ABC
  phases ABCN;
  from R5_12_47_2_node_250;
  to R5_12_47_2_node_66;
  length 5.000;
  configuration ID_39;
}
object overhead_line {
  name R5_12_47_2_ol_23;
// downstream 313.39 kva on ABC
  phases ABCN;
  from R5_12_47_2_node_166;
  to R5_12_47_2_node_238;
  length 5.000;
  configuration ID_39;
}
object overhead_line {
  name R5_12_47_2_ol_24;
  phases AN;
  from R5_12_47_2_node_137;
  to R5_12_47_2_node_242;
  length 5.000;
  configuration ID_41;
}
object overhead_line {
  name R5_12_47_2_ol_25;
// downstream 427.35 kva on ABC
  phases ABCN;
  from R5_12_47_2_node_249;
  to R5_12_47_2_node_114;
  length 5.000;
  configuration ID_39;
}
object overhead_line {
  name R5_12_47_2_ol_26;
// downstream 42.74 kva on ABC
  phases ABCN;
  from R5_12_47_2_node_264;
  to R5_12_47_2_node_138;
  length 5.000;
  configuration ID_39;
}
object overhead_line {
  name R5_12_47_2_ol_27;
// downstream 170.94 kva on ABC
  phases ABCN;
  from R5_12_47_2_node_232;
  to R5_12_47_2_node_163;
  length 5.000;
  configuration ID_39;
}
object overhead_line {
  name R5_12_47_2_ol_28;
// downstream 42.74 kva on ABC
  phases ABCN;
  from R5_12_47_2_node_240;
  to R5_12_47_2_node_102;
  length 5.000;
  configuration ID_39;
}
object overhead_line {
  name R5_12_47_2_ol_29;
  phases ABCN;
  from R5_12_47_2_node_18;
  to R5_12_47_2_node_20;
  length 15.000;
  configuration ID_39;
}
object overhead_line {
  name R5_12_47_2_ol_30;
// downstream 598.30 kva on ABC
  phases ABCN;
  from R5_12_47_2_node_258;
  to R5_12_47_2_node_166;
  length 5.000;
  configuration ID_39;
}
object overhead_line {
  name R5_12_47_2_ol_31;
  phases ABCN;
  from R5_12_47_2_node_165;
  to R5_12_47_2_node_239;
  length 5.000;
  configuration ID_39;
}
object overhead_line {
  name R5_12_47_2_ol_32;
// downstream 683.77 kva on ABC
  phases ABCN;
  from R5_12_47_2_node_112;
  to R5_12_47_2_node_248;
  length 5.000;
  configuration ID_39;
}
object overhead_line {
  name R5_12_47_2_ol_33;
// downstream 683.77 kva on ABC
  phases ABCN;
  from R5_12_47_2_node_253;
  to R5_12_47_2_node_111;
  length 5.000;
  configuration ID_39;
}
object overhead_line {
  name R5_12_47_2_ol_34;
// downstream 36.34 kva on A
  phases AN;
  from R5_12_47_2_node_229;
  to R5_12_47_2_node_71;
  length 5.000;
  configuration ID_41;
}
object overhead_line {
  name R5_12_47_2_ol_35;
// downstream 712.26 kva on ABC
  phases ABCN;
  from R5_12_47_2_node_251;
  to R5_12_47_2_node_67;
  length 5.000;
  configuration ID_39;
}
object overhead_line {
  name R5_12_47_2_ol_36;
// downstream 427.35 kva on ABC
  phases ABCN;
  from R5_12_47_2_node_19;
  to R5_12_47_2_node_17;
  length 15.000;
  configuration ID_39;
}
object overhead_line {
  name R5_12_47_2_ol_37;
  phases ABCN;
  from R5_12_47_2_node_25;
  to R5_12_47_2_node_312;
  length 15.000;
  configuration ID_39;
}
object overhead_line {
  name R5_12_47_2_ol_38;
// downstream 4847.15 kva on ABCS
  phases ABCN;
  from R5_12_47_2_node_57;
  to R5_12_47_2_node_56;
  length 15.000;
  configuration ID_39;
}
object overhead_line {
  name R5_12_47_2_ol_39;
// downstream 712.26 kva on ABC
  phases ABCN;
  from R5_12_47_2_node_260;
  to R5_12_47_2_node_115;
  length 5.000;
  configuration ID_39;
}
object overhead_line {
  name R5_12_47_2_ol_40;
// downstream 4847.15 kva on ABCS
  phases ABCN;
  from R5_12_47_2_node_206;
  to R5_12_47_2_node_57;
  length 20.000;
  configuration ID_39;
}
object overhead_line {
  name R5_12_47_2_ol_41;
// downstream 726.50 kva on ABC
  phases ABCN;
  from R5_12_47_2_node_262;
  to R5_12_47_2_node_112;
  length 5.000;
  configuration ID_39;
}
object overhead_line {
  name R5_12_47_2_ol_42;
// downstream 598.30 kva on ABC
  phases ABCN;
  from R5_12_47_2_node_111;
  to R5_12_47_2_node_246;
  length 5.000;
  configuration ID_39;
}
object overhead_line {
  name R5_12_47_2_ol_43;
// downstream 64.98 kva on ABC
  phases ABCN;
  from R5_12_47_2_node_261;
  to R5_12_47_2_node_121;
  length 5.000;
  configuration ID_39;
}
object overhead_line {
  name R5_12_47_2_ol_44;
// downstream 29.07 kva on A
  phases AN;
  from R5_12_47_2_node_230;
  to R5_12_47_2_node_113;
  length 5.000;
  configuration ID_41;
}
object overhead_line {
  name R5_12_47_2_ol_45;
// downstream 128.21 kva on ABC
  phases ABCN;
  from R5_12_47_2_node_163;
  to R5_12_47_2_node_255;
  length 5.000;
  configuration ID_39;
}
object overhead_line {
  name R5_12_47_2_ol_46;
  phases ABCN;
  from R5_12_47_2_node_216;
  to R5_12_47_2_node_23;
  length 20.000;
  configuration ID_39;
}
object overhead_line {
  name R5_12_47_2_ol_47;
// downstream 427.35 kva on ABC
  phases ABCN;
  from R5_12_47_2_node_26;
  to R5_12_47_2_node_25;
  length 15.000;
  configuration ID_39;
}
object overhead_line {
  name R5_12_47_2_ol_48;
// downstream 7.27 kva on A
  phases AN;
  from R5_12_47_2_node_259;
  to R5_12_47_2_node_137;
  length 5.000;
  configuration ID_41;
}
object overhead_line {
  name R5_12_47_2_ol_49;
// downstream 29.07 kva on A
  phases AN;
  from R5_12_47_2_node_71;
  to R5_12_47_2_node_236;
  length 5.000;
  configuration ID_41;
}
object overhead_line {
  name R5_12_47_2_ol_50;
// downstream 21.37 kva on ABC
  phases ABCN;
  from R5_12_47_2_node_54;
  to R5_12_47_2_node_168;
  length 227.458;
  configuration ID_42;
}
object overhead_line {
  name R5_12_47_2_ol_51;
// downstream 177.83 kva on ABC
  phases ABCN;
  from R5_12_47_2_node_45;
  to R5_12_47_2_node_44;
  length 25.899;
  configuration ID_42;
}
object overhead_line {
  name R5_12_47_2_ol_52;
// downstream 112.85 kva on ABC
  phases ABCN;
  from R5_12_47_2_node_44;
  to R5_12_47_2_node_42;
  length 37.807;
  configuration ID_42;
}
object overhead_line {
  name R5_12_47_2_ol_53;
// downstream 70.11 kva on AB
  phases ABN;
  from R5_12_47_2_node_203;
  to R5_12_47_2_node_104;
  length 16.251;
  configuration ID_43;
}
object overhead_line {
  name R5_12_47_2_ol_54;
// downstream 3985.18 kva on ABCS
  phases ABCN;
  from R5_12_47_2_node_68;
  to R5_12_47_2_node_51;
  length 52.147;
  configuration ID_44;
}
object overhead_line {
  name R5_12_47_2_ol_55;
// downstream 42.74 kva on ABC
  phases ABCN;
  from R5_12_47_2_node_41;
  to R5_12_47_2_node_46;
  length 13.605;
  configuration ID_42;
}
object overhead_line {
  name R5_12_47_2_ol_56;
// downstream 92.44 kva on ABC
  phases ABCN;
  from R5_12_47_2_node_45;
  to R5_12_47_2_node_47;
  length 15.536;
  configuration ID_42;
}
object overhead_line {
  name R5_12_47_2_ol_57;
// downstream 92.44 kva on ABC
  phases ABCN;
  from R5_12_47_2_node_47;
  to R5_12_47_2_node_155;
  length 68.786;
  configuration ID_42;
}
object overhead_line {
  name R5_12_47_2_ol_58;
// downstream 712.26 kva on ABC
  phases ABCN;
  from R5_12_47_2_node_13;
  to R5_12_47_2_node_16;
  length 23.969;
  configuration ID_42;
}
object overhead_line {
  name R5_12_47_2_ol_59;
// downstream 1139.61 kva on ABC
  phases ABCN;
  from R5_12_47_2_node_12;
  to R5_12_47_2_node_15;
  length 25.890;
  configuration ID_42;
}
object overhead_line {
  name R5_12_47_2_ol_60;
// downstream 142.45 kva on ABC
  phases ABCN;
  from R5_12_47_2_node_22;
  to R5_12_47_2_node_21;
  length 83.847;
  configuration ID_46;
}
object overhead_line {
  name R5_12_47_2_ol_61;
// downstream 238.10 kva on ABCS
  phases ABCN;
  from R5_12_47_2_node_194;
  to R5_12_47_2_node_58;
  length 98.753;
  configuration ID_47;
}
object overhead_line {
  name R5_12_47_2_ol_62;
// downstream 218.37 kva on ABCS
  phases ABCN;
  from R5_12_47_2_node_58;
  to R5_12_47_2_node_136;
  length 101.364;
  configuration ID_47;
}
object overhead_line {
  name R5_12_47_2_ol_63;
// downstream 29.07 kva on AS
  phases AN;
  from R5_12_47_2_node_60;
  to R5_12_47_2_node_61;
  length 174.602;
  configuration ID_45;
}
object overhead_line {
  name R5_12_47_2_ol_64;
// downstream 114.54 kva on ABCS
  phases ABCN;
  from R5_12_47_2_node_59;
  to R5_12_47_2_node_60;
  length 80.600;
  configuration ID_42;
}
object overhead_line {
  name R5_12_47_2_ol_65;
// downstream 94.31 kva on ACS
  phases ACN;
  from R5_12_47_2_node_170;
  to R5_12_47_2_node_129;
  length 99.223;
  configuration ID_48;
}
object overhead_line {
  name R5_12_47_2_ol_66;
// downstream 70.67 kva on ABCS
  phases ABCN;
  from R5_12_47_2_node_148;
  to R5_12_47_2_node_62;
  length 117.126;
  configuration ID_49;
}
object overhead_line {
  name R5_12_47_2_ol_67;
// downstream 58.21 kva on ABCS
  phases ABCN;
  from R5_12_47_2_node_62;
  to R5_12_47_2_node_73;
  length 124.083;
  configuration ID_49;
}
object overhead_line {
  name R5_12_47_2_ol_68;
// downstream 127.00 kva on ABCS
  phases ABCN;
  from R5_12_47_2_node_171;
  to R5_12_47_2_node_59;
  length 45.579;
  configuration ID_42;
}
object overhead_line {
  name R5_12_47_2_ol_69;
// downstream 14.54 kva on A
  phases AN;
  from R5_12_47_2_node_52;
  to R5_12_47_2_node_169;
  length 144.753;
  configuration ID_45;
}
object overhead_line {
  name R5_12_47_2_ol_70;
// downstream 14.54 kva on A
  phases AN;
  from R5_12_47_2_node_204;
  to R5_12_47_2_node_52;
  length 86.086;
  configuration ID_45;
}
object overhead_line {
  name R5_12_47_2_ol_71;
// downstream 313.00 kva on ABC
  phases ABCN;
  from R5_12_47_2_node_40;
  to R5_12_47_2_node_41;
  length 15.229;
  configuration ID_44;
}
object overhead_line {
  name R5_12_47_2_ol_72;
// downstream 3572.17 kva on ABCS
  phases ABCN;
  from R5_12_47_2_node_40;
  to R5_12_47_2_node_220;
  length 10.150;
  configuration ID_44;
}
object overhead_line {
  name R5_12_47_2_ol_73;
// downstream 3528.97 kva on ABCS
  phases ABCN;
  from R5_12_47_2_node_39;
  to R5_12_47_2_node_93;
  length 422.295;
  configuration ID_44;
}
object overhead_line {
  name R5_12_47_2_ol_74;
// downstream 3572.17 kva on ABCS
  phases ABCN;
  from R5_12_47_2_node_64;
  to R5_12_47_2_node_39;
  length 243.042;
  configuration ID_44;
}
object overhead_line {
  name R5_12_47_2_ol_75;
// downstream 21.40 kva on CS
  phases CN;
  from R5_12_47_2_node_65;
  to R5_12_47_2_node_135;
  length 107.719;
  configuration ID_51;
}
object overhead_line {
  name R5_12_47_2_ol_76;
// downstream 35.67 kva on CS
  phases CN;
  from R5_12_47_2_node_88;
  to R5_12_47_2_node_65;
  length 155.835;
  configuration ID_51;
}
object overhead_line {
  name R5_12_47_2_ol_77;
// downstream 44.89 kva on ABCS
  phases ABCN;
  from R5_12_47_2_node_86;
  to R5_12_47_2_node_205;
  length 102.714;
  configuration ID_52;
}
object overhead_line {
  name R5_12_47_2_ol_78;
// downstream 29.07 kva on AS
  phases AN;
  from R5_12_47_2_node_94;
  to R5_12_47_2_node_144;
  length 183.762;
  configuration ID_45;
}
object overhead_line {
  name R5_12_47_2_ol_79;
// downstream 180.78 kva on ABCS
  phases ABCN;
  from R5_12_47_2_node_140;
  to R5_12_47_2_node_134;
  length 144.527;
  configuration ID_47;
}
object overhead_line {
  name R5_12_47_2_ol_80;
// downstream 27.86 kva on BS
  phases BN;
  from R5_12_47_2_node_79;
  to R5_12_47_2_node_105;
  length 192.620;
  configuration ID_53;
}
object overhead_line {
  name R5_12_47_2_ol_81;
// downstream 69.66 kva on BS
  phases BN;
  from R5_12_47_2_node_145;
  to R5_12_47_2_node_80;
  length 191.601;
  configuration ID_53;
}
object overhead_line {
  name R5_12_47_2_ol_82;
// downstream 1892.96 kva on ABC
  phases ABCN;
  from R5_12_47_2_node_131;
  to R5_12_47_2_node_142;
  length 242.277;
  configuration ID_42;
}
object overhead_line {
  name R5_12_47_2_ol_83;
// downstream 733.41 kva on ABC
  phases ABCN;
  from R5_12_47_2_node_12;
  to R5_12_47_2_node_13;
  length 130.166;
  configuration ID_42;
}
object overhead_line {
  name R5_12_47_2_ol_84;
// downstream 21.60 kva on AC
  phases ACN;
  from R5_12_47_2_node_39;
  to R5_12_47_2_node_130;
  length 148.428;
  configuration ID_54;
}
object overhead_line {
  name R5_12_47_2_ol_85;
// downstream 169.06 kva on ABCS
  phases ABCN;
  from R5_12_47_2_node_127;
  to R5_12_47_2_node_4;
  length 101.604;
  configuration ID_42;
}
object overhead_line {
  name R5_12_47_2_ol_86;
// downstream 13.93 kva on BS
  phases BN;
  from R5_12_47_2_node_117;
  to R5_12_47_2_node_70;
  length 346.338;
  configuration ID_55;
}
object overhead_line {
  name R5_12_47_2_ol_87;
// downstream 1964.30 kva on ABC
  phases ABCN;
  from R5_12_47_2_node_208;
  to R5_12_47_2_node_92;
  length 137.401;
  configuration ID_42;
}
object overhead_line {
  name R5_12_47_2_ol_88;
// downstream 83.13 kva on ABCS
  phases ABCN;
  from R5_12_47_2_node_118;
  to R5_12_47_2_node_148;
  length 119.699;
  configuration ID_47;
}
object overhead_line {
  name R5_12_47_2_ol_89;
// downstream 48.76 kva on BS
  phases BN;
  from R5_12_47_2_node_195;
  to R5_12_47_2_node_72;
  length 26.518;
  configuration ID_55;
}
object overhead_line {
  name R5_12_47_2_ol_90;
// downstream 111.60 kva on ABCS
  phases ABCN;
  from R5_12_47_2_node_29;
  to R5_12_47_2_node_30;
  length 181.137;
  configuration ID_47;
}
object overhead_line {
  name R5_12_47_2_ol_91;
// downstream 38.18 kva on ABCS
  phases ABCN;
  from R5_12_47_2_node_151;
  to R5_12_47_2_node_156;
  length 269.507;
  configuration ID_47;
}
object overhead_line {
  name R5_12_47_2_ol_92;
  phases ABCN;
  from R5_12_47_2_node_27;
  to R5_12_47_2_node_218;
  length 262.252;
  configuration ID_44;
}
object overhead_line {
  name R5_12_47_2_ol_93;
// downstream 270.26 kva on ABC
  phases ABCN;
  from R5_12_47_2_node_41;
  to R5_12_47_2_node_45;
  length 24.008;
  configuration ID_42;
}
object overhead_line {
  name R5_12_47_2_ol_94;
// downstream 83.59 kva on BS
  phases BN;
  from R5_12_47_2_node_4;
  to R5_12_47_2_node_145;
  length 171.664;
  configuration ID_53;
}
object overhead_line {
  name R5_12_47_2_ol_95;
// downstream 1914.33 kva on ABC
  phases ABCN;
  from R5_12_47_2_node_76;
  to R5_12_47_2_node_131;
  length 112.370;
  configuration ID_42;
}
object overhead_line {
  name R5_12_47_2_ol_96;
// downstream 1001.33 kva on ABCS
  phases ABCN;
  from R5_12_47_2_node_157;
  to R5_12_47_2_node_8;
  length 141.186;
  configuration ID_44;
}
object overhead_line {
  name R5_12_47_2_ol_97;
// downstream 77.06 kva on ACS
  phases ACN;
  from R5_12_47_2_node_176;
  to R5_12_47_2_node_106;
  length 166.759;
  configuration ID_54;
}
object overhead_line {
  name R5_12_47_2_ol_98;
// downstream 56.18 kva on AB
  phases ABN;
  from R5_12_47_2_node_104;
  to R5_12_47_2_node_35;
  length 146.713;
  configuration ID_43;
}
object overhead_line {
  name R5_12_47_2_ol_99;
// downstream 85.47 kva on ABC
  phases ABCN;
  from R5_12_47_2_node_155;
  to R5_12_47_2_node_126;
  length 61.499;
  configuration ID_42;
}
object overhead_line {
  name R5_12_47_2_ol_100;
// downstream 6.97 kva on BS
  phases BN;
  from R5_12_47_2_node_120;
  to R5_12_47_2_node_158;
  length 245.931;
  configuration ID_55;
}
object overhead_line {
  name R5_12_47_2_ol_101;
// downstream 13.93 kva on BS
  phases BN;
  from R5_12_47_2_node_190;
  to R5_12_47_2_node_31;
  length 157.527;
  configuration ID_55;
}
object overhead_line {
  name R5_12_47_2_ol_102;
// downstream 49.87 kva on ABC
  phases ABCN;
  from R5_12_47_2_node_132;
  to R5_12_47_2_node_107;
  length 276.485;
  configuration ID_42;
}
object overhead_line {
  name R5_12_47_2_ol_103;
// downstream 113.17 kva on ABCS
  phases ABCN;
  from R5_12_47_2_node_150;
  to R5_12_47_2_node_149;
  length 101.569;
  configuration ID_47;
}
object overhead_line {
  name R5_12_47_2_ol_104;
// downstream 49.93 kva on CS
  phases CN;
  from R5_12_47_2_node_34;
  to R5_12_47_2_node_88;
  length 155.333;
  configuration ID_56;
}
object overhead_line {
  name R5_12_47_2_ol_105;
// downstream 5.69 kva on AB
  phases ABN;
  from R5_12_47_2_node_55;
  to R5_12_47_2_node_119;
  length 22.158;
  configuration ID_57;
}
object overhead_line {
  name R5_12_47_2_ol_106;
// downstream 65.79 kva on ABCS
  phases ABCN;
  from R5_12_47_2_node_159;
  to R5_12_47_2_node_28;
  length 464.080;
  configuration ID_47;
}
object overhead_line {
  name R5_12_47_2_ol_107;
// downstream 59.93 kva on ACS
  phases ACN;
  from R5_12_47_2_node_106;
  to R5_12_47_2_node_11;
  length 177.963;
  configuration ID_54;
}
object overhead_line {
  name R5_12_47_2_ol_108;
// downstream 34.76 kva on ABCS
  phases ABCN;
  from R5_12_47_2_node_82;
  to R5_12_47_2_node_83;
  length 122.000;
  configuration ID_49;
}
object overhead_line {
  name R5_12_47_2_ol_109;
// downstream 610.64 kva on ABCS
  phases ABCN;
  from R5_12_47_2_node_8;
  to R5_12_47_2_node_81;
  length 190.065;
  configuration ID_42;
}
object overhead_line {
  name R5_12_47_2_ol_110;
// downstream 145.08 kva on ABCS
  phases ABCN;
  from R5_12_47_2_node_97;
  to R5_12_47_2_node_84;
  length 116.419;
  configuration ID_47;
}
object overhead_line {
  name R5_12_47_2_ol_111;
// downstream 45.89 kva on ABCS
  phases ABCN;
  from R5_12_47_2_node_73;
  to R5_12_47_2_node_82;
  length 115.942;
  configuration ID_49;
}
object overhead_line {
  name R5_12_47_2_ol_112;
// downstream 1256.36 kva on ABCS
  phases ABCN;
  from R5_12_47_2_node_10;
  to R5_12_47_2_node_9;
  length 22.927;
  configuration ID_44;
}
object overhead_line {
  name R5_12_47_2_ol_113;
// downstream 1035.05 kva on ABCS
  phases ABCN;
  from R5_12_47_2_node_9;
  to R5_12_47_2_node_157;
  length 127.580;
  configuration ID_44;
}
object overhead_line {
  name R5_12_47_2_ol_114;
// downstream 4029.48 kva on ABCS
  phases ABCN;
  from R5_12_47_2_node_55;
  to R5_12_47_2_node_53;
  length 118.019;
  configuration ID_44;
}
object overhead_line {
  name R5_12_47_2_ol_115;
// downstream 4035.17 kva on ABCS
  phases ABCN;
  from R5_12_47_2_node_217;
  to R5_12_47_2_node_55;
  length 53.141;
  configuration ID_44;
}
object overhead_line {
  name R5_12_47_2_ol_116;
// downstream 3996.59 kva on ABCS
  phases ABCN;
  from R5_12_47_2_node_53;
  to R5_12_47_2_node_108;
  length 104.311;
  configuration ID_44;
}
object overhead_line {
  name R5_12_47_2_ol_117;
// downstream 47.86 kva on ACS
  phases ACN;
  from R5_12_47_2_node_192;
  to R5_12_47_2_node_100;
  length 168.412;
  configuration ID_58;
}
object overhead_line {
  name R5_12_47_2_ol_118;
// downstream 188.18 kva on ABCS
  phases ABCN;
  from R5_12_47_2_node_177;
  to R5_12_47_2_node_127;
  length 218.052;
  configuration ID_42;
}
object overhead_line {
  name R5_12_47_2_ol_119;
// downstream 1873.02 kva on ABC
  phases ABCN;
  from R5_12_47_2_node_142;
  to R5_12_47_2_node_12;
  length 9.465;
  configuration ID_42;
}
object overhead_line {
  name R5_12_47_2_ol_120;
// downstream 3528.97 kva on ABCS
  phases ABCN;
  from R5_12_47_2_node_93;
  to R5_12_47_2_node_43;
  length 13.000;
  configuration ID_44;
}
object overhead_line {
  name R5_12_47_2_ol_121;
// downstream 3992.31 kva on ABCS
  phases ABCN;
  from R5_12_47_2_node_108;
  to R5_12_47_2_node_68;
  length 334.041;
  configuration ID_44;
}
object overhead_line {
  name R5_12_47_2_ol_122;
// downstream 85.52 kva on ABCS
  phases ABCN;
  from R5_12_47_2_node_153;
  to R5_12_47_2_node_159;
  length 120.841;
  configuration ID_47;
}
object overhead_line {
  name R5_12_47_2_ol_123;
// downstream 36.34 kva on AS
  phases AN;
  from R5_12_47_2_node_100;
  to R5_12_47_2_node_94;
  length 54.884;
  configuration ID_45;
}
object overhead_line {
  name R5_12_47_2_ol_124;
// downstream 13.93 kva on BS
  phases BN;
  from R5_12_47_2_node_31;
  to R5_12_47_2_node_85;
  length 114.164;
  configuration ID_55;
}
object overhead_line {
  name R5_12_47_2_ol_125;
// downstream 198.65 kva on ABCS
  phases ABCN;
  from R5_12_47_2_node_136;
  to R5_12_47_2_node_160;
  length 96.755;
  configuration ID_47;
}
object overhead_line {
  name R5_12_47_2_ol_126;
// downstream 28.53 kva on CS
  phases CN;
  from R5_12_47_2_node_2;
  to R5_12_47_2_node_78;
  length 100.509;
  configuration ID_51;
}
object overhead_line {
  name R5_12_47_2_ol_127;
// downstream 55.73 kva on BS
  phases BN;
  from R5_12_47_2_node_80;
  to R5_12_47_2_node_79;
  length 125.097;
  configuration ID_53;
}
object overhead_line {
  name R5_12_47_2_ol_128;
// downstream 6.97 kva on BS
  phases BN;
  from R5_12_47_2_node_70;
  to R5_12_47_2_node_96;
  length 244.740;
  configuration ID_53;
}
object overhead_line {
  name R5_12_47_2_ol_129;
// downstream 1921.59 kva on ABC
  phases ABCN;
  from R5_12_47_2_node_92;
  to R5_12_47_2_node_76;
  length 145.578;
  configuration ID_42;
}
object overhead_line {
  name R5_12_47_2_ol_130;
// downstream 13.93 kva on B
  phases BN;
  from R5_12_47_2_node_43;
  to R5_12_47_2_node_133;
  length 70.981;
  configuration ID_59;
}
object overhead_line {
  name R5_12_47_2_ol_131;
// downstream 3493.67 kva on ABCS
  phases ABCN;
  from R5_12_47_2_node_43;
  to R5_12_47_2_node_99;
  length 83.288;
  configuration ID_44;
}
object overhead_line {
  name R5_12_47_2_ol_132;
// downstream 42.74 kva on ABC
  phases ABCN;
  from R5_12_47_2_node_107;
  to R5_12_47_2_node_143;
  length 122.113;
  configuration ID_42;
}
object overhead_line {
  name R5_12_47_2_ol_133;
// downstream 21.15 kva on ABC
  phases ABCN;
  from R5_12_47_2_node_13;
  to R5_12_47_2_node_91;
  length 8.290;
  configuration ID_42;
}
object overhead_line {
  name R5_12_47_2_ol_134;
// downstream 44.89 kva on ABCS
  phases ABCN;
  from R5_12_47_2_node_28;
  to R5_12_47_2_node_146;
  length 788.179;
  configuration ID_44;
}
object overhead_line {
  name R5_12_47_2_ol_135;
// downstream 159.47 kva on ABCS
  phases ABCN;
  from R5_12_47_2_node_161;
  to R5_12_47_2_node_29;
  length 88.778;
  configuration ID_47;
}
object overhead_line {
  name R5_12_47_2_ol_136;
// downstream 3493.67 kva on ABCS
  phases ABCN;
  from R5_12_47_2_node_99;
  to R5_12_47_2_node_14;
  length 161.478;
  configuration ID_44;
}
object overhead_line {
  name R5_12_47_2_ol_137;
// downstream 20.90 kva on BS
  phases BN;
  from R5_12_47_2_node_28;
  to R5_12_47_2_node_120;
  length 254.571;
  configuration ID_55;
}
object overhead_line {
  name R5_12_47_2_ol_138;
// downstream 97.67 kva on ABCS
  phases ABCN;
  from R5_12_47_2_node_185;
  to R5_12_47_2_node_153;
  length 83.382;
  configuration ID_47;
}
object overhead_line {
  name R5_12_47_2_ol_139;
// downstream 100.84 kva on ABCS
  phases ABCN;
  from R5_12_47_2_node_149;
  to R5_12_47_2_node_118;
  length 92.691;
  configuration ID_47;
}
object overhead_line {
  name R5_12_47_2_ol_140;
// downstream 27.86 kva on AB
  phases ABN;
  from R5_12_47_2_node_147;
  to R5_12_47_2_node_103;
  length 305.967;
  configuration ID_43;
}
object overhead_line {
  name R5_12_47_2_ol_141;
// downstream 10.08 kva on ACS
  phases ACN;
  from R5_12_47_2_node_11;
  to R5_12_47_2_node_90;
  length 103.247;
  configuration ID_50;
}
object overhead_line {
  name R5_12_47_2_ol_142;
// downstream 233.29 kva on ABCS
  phases ABCN;
  from R5_12_47_2_node_226;
  to R5_12_47_2_node_141;
  length 101.270;
  configuration ID_47;
}
object overhead_line {
  name R5_12_47_2_ol_143;
// downstream 233.29 kva on ABCS
  phases ABCN;
  from R5_12_47_2_node_7;
  to R5_12_47_2_node_226;
  length 92.002;
  configuration ID_47;
}
object overhead_line {
  name R5_12_47_2_ol_144;
// downstream 56.18 kva on AB
  phases ABN;
  from R5_12_47_2_node_35;
  to R5_12_47_2_node_116;
  length 117.640;
  configuration ID_43;
}
object overhead_line {
  name R5_12_47_2_ol_145;
// downstream 57.07 kva on CS
  phases CN;
  from R5_12_47_2_node_174;
  to R5_12_47_2_node_110;
  length 127.676;
  configuration ID_51;
}
object overhead_line {
  name R5_12_47_2_ol_146;
// downstream 71.33 kva on CS
  phases CN;
  from R5_12_47_2_node_32;
  to R5_12_47_2_node_75;
  length 105.338;
  configuration ID_56;
}
object overhead_line {
...